26
-3634.57183343
Co        -0.01316        0.01576        1.22131
Co        -0.01212       -0.01877       -1.22133
O          1.34284       -1.38345        1.13484
O         -1.36191        1.41057        1.10897
O         -1.40932       -1.33809        1.13521
O          1.38390        1.36658        1.11004
C          1.71406       -1.80892        0.01758
C         -1.81673       -1.72676        0.01723
O         -1.34751        1.39622       -1.13576
O          1.32379       -1.42912       -1.10930
O          1.40454        1.31880       -1.13415
O         -1.42093       -1.35278       -1.10976
C         -1.73926        1.80215       -0.01830
C          1.79311        1.72727       -0.01648
H         -2.61420       -2.48547        0.02594
H         -2.50239        2.59536       -0.02781
H          2.58634        2.49047       -0.02503
H          2.47133       -2.60778        0.02693
N          0.01556        0.01301       -3.33860
H          0.76282        0.62126       -3.65123
H          0.17287       -0.91198       -3.71915
H         -0.86028        0.36770       -3.70275
N          0.02241       -0.00886        3.33854
H         -0.89516       -0.20847        3.71736
H          0.66259       -0.72925        3.65052
H          0.33688        0.88112        3.70514
