  127
       -212.85588016
 C         -2.2893876651       -0.0333786583        5.8117488708
 C         -0.2557598858       -1.2373636921        6.0187952741
 C         -0.2392358427        1.1363099060        6.0575716159
 H         -2.8153081411        0.8607180616        6.1551602635
 H         -0.7788548676        2.0083217371        6.4351730373
 H         -0.8328977594       -2.1124218376        6.3269896114
 H         -2.8456695882       -0.9066911928        6.1611192260
 H          0.7335738217        1.1004467387        6.5537216290
 H          0.6984638693       -1.2579481533        6.5509996834
 N         -0.9820905301       -0.0521972515        6.4522859833
 C          1.1516264366        1.9613602695        0.4544554404
 C         -1.8882778151       -1.9484122093        0.2405109554
 C          1.5811369789       -1.5262453064        0.5119496287
 C         -2.3141855333        1.5497410705        0.2047894751
 C         -5.7107223055       -7.0022711612       -1.1842329957
 C          2.0612409224        3.1461578965        0.5089422579
 C         -2.8028728664       -3.1297316137        0.1767353832
 C          2.7474245296       -2.4554871822        0.6050086134
 C         -3.4870347704        2.4736125565        0.1157661745
 C         -5.3827307290       -6.4514286583        0.0232520289
 C          2.5989710429        3.6585446014       -0.6460854802
 C         -3.1328435855       -3.6855880511       -1.0346122943
 C          3.3922828378       -2.8749669554       -0.5324094679
 C         -3.9731952142        2.8589014962       -1.1091007771
 C         -5.1912593736       -6.4667370569       -2.3736079553
 C          3.1821808061       -2.8978642141        1.8711030237
 C         -4.0925158580        2.9455420235        1.2982476592
 C         -3.3251161415       -3.6697027686        1.3698097546
 C          2.3628236329        3.7327450759        1.7546263087
 C         -4.3521348133       -5.3889355459       -2.3360471029
 C          3.1936570820        4.8128397369        1.8202351972
 C         -4.1616274879       -4.7463685430        1.3284100047
 C          4.2492943484       -3.7411389813        1.9739484814
 C         -5.1636270522        3.7877075091        1.2332214758
 C         -4.5199202748       -5.3389208076        0.0975289603
 C          3.4604113365        4.7710154754       -0.6056084815
 C         -3.9941149917       -4.7967978131       -1.1059890491
 C          4.4969067016       -3.7439937261       -0.4541366845
 C         -5.0772223895        3.7269754133       -1.2049494334
 C         -1.5152745269       -0.0137487816       -3.7902571905
 C          0.5185460974       -1.2627943040       -3.6779025241
 C          0.5840235690        1.1227306418       -3.7350314008
 C         -2.1265923608       -0.0411624631        4.2755432055
 C         -0.0498888335       -1.2028601692        4.4877505894
 C         -0.0898859913        1.1833701881        4.5199737931
 H         -5.7808758937       -6.8613219729        0.9405812794
 H          2.3538213101        3.2017465146       -1.5940749049
 H         -2.7251737913       -3.2632913484       -1.9409986828
 H          3.0460956832       -2.5330459276       -1.4964578029
 H         -3.5018608802        2.4890482326       -2.0073994388
 H         -5.4618352484       -6.9154944987       -3.3181260748
 H          2.6482435573       -2.5533272372        2.7429843592
 H         -3.6855780995        2.6232683850        2.2440286980
 H         -3.0441476319       -3.2090899374        2.3041308164
 H          1.9194275046        3.3055278267        2.6406993236
 H          3.7940379016        4.8650545706       -2.7267236064
 H         -3.9490392191       -4.9720428705       -3.2477498602
 H          4.8417899362       -3.8502477213       -2.5726650228
 H         -5.1316880352        3.7754299131       -3.3530364722
 H         -4.5647200913       -5.1641659126        2.2400407773
 H         -2.5994818320        0.8273563420        3.8167493129
 H         -0.4794310596       -2.0797555166        4.0010008934
 H         -2.5591891835       -0.9365985812        3.8280727684
 H          0.9583972520        1.2054307624        4.2188739631
 H          1.0078935115       -1.1531053557        4.2275223057
 H         -0.5858353187        2.0561540325        4.0923196334
 H         -1.9949772515        0.9036265820       -3.4487814310
 H          0.0917354026        2.0212783842       -3.3601482913
 H         -0.0415696093       -2.1135006904       -3.2874882288
 H         -2.0641468566       -0.8581057978       -3.3719638291
 H          1.5885493121        1.0827259886       -3.3107290292
 H          1.5116418782       -1.2757866336       -3.2277254428
 N         -0.1578393368       -0.0388501216       -3.2280195436
 N         -0.7002084065       -0.0123536673        3.9237589737
 NI        -0.4577540088        0.0155905685        1.5673531231
 NI        -0.2790690310        0.0016832625       -0.8622253232
 O          1.2196419544       -1.1739904147       -0.6429916467
 O         -1.7844850052        1.1893430392       -0.8762978532
 O         -1.4540870757       -1.5001052420       -0.8508411920
 O          0.8870918872        1.4974660579       -0.6858891638
 O          0.7216990708        1.5156251440        1.5454341421
 O         -1.6218534935       -1.4904799632        1.3797974103
 O          1.0476719738       -1.1604154745        1.5867561255
 O         -1.9449226882        1.2008341294        1.3538756248
 C          6.6866959143       -5.4680056185       -0.2351393907
 C          6.0438236624       -5.0547680823        0.8984671050
 C          6.2518737570       -5.0322534998       -1.4969696589
 C          5.1812793429       -4.1898836476       -1.6049921993
 C          4.9364928517       -4.1853886704        0.8227526876
 H          6.3758564985       -5.3886868274        1.8713401152
 H          6.7724080568       -5.3698498166       -2.3812368788
 H          4.5866043370       -4.0837075705        2.9420239427
 C         -7.2718351013        5.4544292349       -1.3318879570
 C         -6.7906847917        5.0716329186       -0.1108407713
 C         -6.6708818634        4.9852273462       -2.5108753407
 C         -5.5984484233        4.1406465201       -2.4495649907
 C         -5.6855002609        4.2018896040       -0.0119875073
 H         -7.2512053829        5.4307872010        0.7985340219
 H         -7.0651905006        5.2987076331       -3.4663730930
 H         -5.6311359203        4.1523025263        2.1368821716
 C          5.1660683758        6.9812077864       -0.4624872971
 C          4.6285977323        6.4745420988        0.6879078948
 C          4.8649197571        6.3984957322       -1.7039682027
 C          4.0312329411        5.3181551326       -1.7747045746
 C          3.7651606218        5.3605584646        0.6507620772
 H          4.8583708081        6.9209639249        1.6449117254
 H          5.2992174694        6.8129223000       -2.6019097639
 H          3.4280896450        5.2676988597        2.7721695663
 C         -1.4466949280       -0.0804875003       -5.3322808946
 C          0.5950358283       -1.2836116256       -5.2211368041
 C          0.6176568953        1.0893428735       -5.2800057303
 H         -1.9277417774        0.7856440136       -5.7934274912
 H          0.0981346966       -2.1638483416       -5.6361878932
 H         -1.9320834375       -0.9802005774       -5.7179096715
 H          1.6426764907        1.0714020668       -5.6584333781
 H          1.6299446007       -1.2839679640       -5.5715160972
 H          0.1137756579        1.9578098069       -5.7108332269
 N         -0.0581782275       -0.1036014319       -5.7694832351
 H         -8.1188893956        6.1213365330       -1.3991782060
 H          7.5349242292       -6.1336562173       -0.1685751817
 H          5.8272883541        7.8345506438       -0.4253154500
 H         -6.3726454143       -7.8545010591       -1.2326691713
 C          3.9017123076        0.5246674969       -1.1482116638
 H          4.0277254138        1.5538648507       -1.4802991091
 CL         5.1403853813       -0.4618417598       -1.9282485997
 H          2.9168016593        0.1238857551       -1.3969655493
 CL         4.0722783948        0.4965492393        0.6142706861
