  57
        -93.78167939
 C          2.0885759038       -1.7164418011        1.7598479733
 C          2.0363668994       -1.6234008661        0.2800038491
 C          2.8067405954       -0.9077930761       -0.6251525620
 C          2.2241016081       -1.1766662646       -1.8921950274
 N          1.1972869578       -1.9911799290       -1.7581579689
 N          1.0867581509       -2.2580552416       -0.4489529691
 C         -0.0065121372       -3.0595728530        0.0246763851
 N         -1.0984607430       -2.2461688774        0.4835967426
 C         -2.0417580817       -1.6182849980       -0.2580193220
 C         -2.8132931462       -0.8873639199        0.6346554197
 C         -2.2371357985       -1.1415040239        1.9074430531
 N         -1.2134329537       -1.9620411733        1.7882515317
 C         -2.6751577611       -0.6441003215        3.2381407187
 H         -3.7561100335       -0.5249156386        3.2620162954
 H         -2.3666730129       -1.3484264293        4.0061421065
 H         -2.2142050539        0.3189801320        3.4579919311
 C         -3.9786553075       -0.0683683489        0.3351012597
 C         -4.9467180592       -0.5123905119       -0.5675616590
 C         -6.0510996779        0.2622733410       -0.8480978350
 C         -6.2320803817        1.4960411353       -0.2236287269
 C         -5.2645014122        1.9460801330        0.6735171593
 C         -4.1528722658        1.1741051939        0.9445005621
 H         -3.3971754131        1.5451083524        1.6195178922
 H         -5.3436088194        2.9192374616        1.1425656556
 C         -7.4496851763        2.2745895754       -0.5761226731
 O         -8.0788064827        2.0850850683       -1.5817645586
 O         -7.8405011371        3.2183400919        0.3040805515
 H         -7.2805723299        3.2402204845        1.0910823437
 H         -6.8024842641       -0.0716112997       -1.5473938907
 H         -4.8353105377       -1.4790486215       -1.0341704969
 C         -2.0878082372       -1.7302124687       -1.7365635889
 H         -2.6907134315       -0.9250888070       -2.1482620252
 H         -2.5287094162       -2.6814200852       -2.0387552081
 H         -1.0821671493       -1.6746838258       -2.1531374086
 H          0.3186304418       -3.6735154888        0.8696654503
 H         -0.3343909802       -3.6883962880       -0.8082816740
 C          2.6593847434       -0.6980492439       -3.2303772230
 H          2.1960234896        0.2606992803       -3.4634053664
 H          3.7397671664       -0.5755294443       -3.2562362430
 H          2.3520860885       -1.4140727984       -3.9880831368
 C          3.9774876312       -0.0894777109       -0.3419103281
 C          4.9512293076       -0.5351965936        0.5544125956
 C          6.0637693188        0.2332547886        0.8187281466
 C          6.2314199784        1.4674554767        0.1914346501
 C          5.2646942827        1.9180500366       -0.7055184980
 C          4.1524911858        1.1460223147       -0.9669846704
 H          3.3971371968        1.5072782552       -1.6477449659
 H          5.3930409550        2.8741624975       -1.1884340927
 C          7.4364218408        2.2583676734        0.5007752005
 O          8.3004358247        1.9244698015        1.2752452009
 O          7.5025420441        3.4229221760       -0.1699862331
 H          8.3146743000        3.8911025232        0.0773907660
 H          6.8244109811       -0.1036855190        1.5067292571
 H          4.8387677014       -1.5002427603        1.0248412748
 H          2.5199140931       -2.6686295077        2.0726153323
 H          1.0861099147       -1.6431245525        2.1811893873
 H          2.7036005050       -0.9130672513        2.1566931871
