  32
        -58.24239984
 C          4.9287135715       -0.3150815016        0.0006469590
 O          5.6877252136        0.6229721802        0.0031491911
 O          5.3870264048       -1.5808118153       -0.0016667127
 H          6.3566221819       -1.5710761378       -0.0008834696
 C          3.4543377491       -0.2417495080       -0.0001282962
 C          2.6970291465       -1.4154155793       -0.0002061654
 C          1.3205962485       -1.3393100217       -0.0003651021
 C          0.7302422691       -0.0743804927       -0.0003668114
 N          1.4493123901        1.0446978423       -0.0007367271
 C          2.7696316743        0.9907266551       -0.0006731555
 C          3.4671393573        2.3072320853       -0.0010625213
 H          4.1127495174        2.3944020605       -0.8723473534
 H          4.1051644699        2.3983548106        0.8754463405
 H          2.7279269550        3.1030070681       -0.0057791354
 C         -0.7302456917        0.0745797664       -0.0000287543
 N         -1.4492497749       -1.0445418888        0.0008141446
 C         -2.7695690304       -0.9906729316        0.0008781055
 C         -3.4543571109        0.2417554762       -0.0001087176
 C         -2.6971262928        1.4154717285       -0.0006065862
 C         -1.3206835409        1.3394685936       -0.0005046344
 H         -0.6942288262        2.2155063408       -0.0009092619
 H         -3.1992745111        2.3707185235       -0.0012359549
 C         -4.9287378186        0.3149526490       -0.0008397523
 O         -5.6876565380       -0.6231705124       -0.0044755500
 O         -5.3871783727        1.5806304002        0.0034143259
 H         -6.3567721166        1.5707871426        0.0027808488
 C         -3.4669642973       -2.3072362690        0.0020386389
 H         -4.1068781251       -2.3980615781       -0.8731031264
 H         -4.1106778154       -2.3948404508        0.8746975833
 H         -2.7276734267       -3.1029441763        0.0049982082
 H          0.6940723602       -2.2152978210       -0.0003963613
 H          3.1991055150       -2.3707000457       -0.0000208106
  32
        -58.24108350
 C         -4.9168127510        0.4994897772        0.0013354228
 O         -5.4422494372        1.5868983206       -0.0007356808
 O         -5.6470366484       -0.6253756447        0.0056791151
 H         -6.5896017995       -0.3939571887        0.0068125121
 C         -3.4503485118        0.3042375748       -0.0000306534
 C         -2.6765310841        1.4689680764        0.0011750964
 C         -1.3019309820        1.3841385159        0.0007996881
 C         -0.7270497230        0.1118464273       -0.0003018633
 N         -1.4606011120       -0.9973625744       -0.0021474108
 C         -2.7811637100       -0.9339406576       -0.0024499346
 C         -3.4705445547       -2.2576519219       -0.0058965801
 H         -4.1074979649       -2.3552734609       -0.8819331753
 H         -4.1022379804       -2.3623000128        0.8731658674
 H         -2.7200024101       -3.0429308706       -0.0111347640
 C          0.7313433616       -0.0564740723        0.0003146912
 N          1.4644726705        1.0532731136       -0.0018207364
 C          2.7839809976        0.9830679755       -0.0015557915
 C          3.4532882997       -0.2579220640        0.0011149501
 C          2.6813516680       -1.4219621620        0.0033826688
 C          1.3059755819       -1.3286643405        0.0029477686
 H          0.6690278857       -2.1971089362        0.0046563982
 H          3.1714664558       -2.3834568089        0.0055872880
 C          4.9266075374       -0.3497439077        0.0014394892
 O          5.6974009430        0.5785492365        0.0041945282
 O          5.3690392535       -1.6212768141       -0.0018736571
 H          6.3386824675       -1.6234461924       -0.0015543145
 C          3.4976092269        2.2907723621       -0.0041788594
 H          4.1347490740        2.3764792801        0.8735571710
 H          2.7682066053        3.0954925994       -0.0126054675
 H          4.1462044093        2.3676087056       -0.8742051909
 H         -0.6670042439        2.2538703566        0.0016162653
 H         -3.1856897971        2.4217552461        0.0025527351
  32
        -58.23985044
 C         -4.9126973797       -0.5337167912        0.0038936739
 O         -5.4243423770       -1.6276822903       -0.0089255037
 O         -5.6567960693        0.5816430219        0.0253976846
 H         -6.5964486745        0.3386962034        0.0285015281
 C         -3.4488159617       -0.3200183771       -0.0013511808
 C         -2.6605160412       -1.4749211888       -0.0065229091
 C         -1.2870957571       -1.3729122572       -0.0094798484
 C         -0.7280221006       -0.0935589949       -0.0067085930
 N         -1.4754783813        1.0061580463       -0.0041111964
 C         -2.7951103816        0.9264853715       -0.0018346080
 C         -3.5007563954        2.2414706848       -0.0003329689
 H         -2.7599722635        3.0359038585       -0.0089243410
 H         -4.1285748721        2.3374743864        0.8825015409
 H         -4.1439607201        2.3320560297       -0.8725435770
 C          0.7280285088        0.0939341098       -0.0060348726
 N          1.4753591973       -1.0058697708       -0.0027621484
 C          2.7949938881       -0.9263918622       -0.0000208775
 C          3.4488675914        0.3200245128       -0.0003502993
 C          2.6607087108        1.4750264265       -0.0051098759
 C          1.2872650497        1.3732123344       -0.0080295939
 H          0.6421132580        2.2353873050       -0.0113901121
 H          3.1580798212        2.4340388887       -0.0060723424
 C          4.9127861371        0.5334928262        0.0034822489
 O          5.4245844938        1.6274167314       -0.0061225741
 O          5.6567435179       -0.5820615789        0.0190741091
 H          6.5964429412       -0.3392875478        0.0209973012
 C          3.5003973949       -2.2415023593        0.0031621782
 H          4.1313757823       -2.3350187680        0.8839821736
 H          4.1404289583       -2.3348160021       -0.8711140757
 H          2.7594271115       -3.0357989566       -0.0006133251
 H         -0.6418100829       -2.2349833225       -0.0131552616
 H         -3.1577563257       -2.4340010312       -0.0075266289
  32
        -58.23485011
 C          4.9394899402        0.1568955159        0.0652259337
 O          5.6027499361       -0.7948156246       -0.2652957089
 O          5.5195229252        1.2961946811        0.4889723997
 H          6.4832396538        1.1902950057        0.4722131486
 C          3.4652396192        0.2338778231        0.0607798578
 C          2.8276715165        1.4182759190        0.4332138849
 C          1.4500051344        1.4875542014        0.4180140696
 C          0.7367207324        0.3527345592        0.0250301226
 N          1.3419372665       -0.7765370650       -0.3164900775
 C          2.6603164008       -0.8634193660       -0.3074381289
 C          3.2181713333       -2.1838485780       -0.7098335483
 H          3.8525350045       -2.0761688614       -1.5873192921
 H          2.3974261844       -2.8618431013       -0.9239073670
 H          3.8420662165       -2.5903634191        0.0832606510
 C         -0.7366552011        0.3529404126       -0.0218178854
 N         -1.3423551429       -0.7759036620        0.3202515055
 C         -2.6607371458       -0.8627151284        0.3096068374
 C         -3.4651277769        0.2340863711       -0.0612589963
 C         -2.8270374521        1.4183133284       -0.4333537845
 C         -1.4494024327        1.4876514381       -0.4160871983
 H         -0.9376768465        2.3868248415       -0.7209657101
 H         -3.4188201231        2.2699063287       -0.7324348980
 C         -4.9393440705        0.1566574638       -0.0691734478
 O         -5.6029757158       -0.7973291583        0.2539517040
 O         -5.5188947371        1.2983513794       -0.4871167675
 H         -6.4825996905        1.1919313099       -0.4733005819
 C         -3.2191861702       -2.1825616815        0.7130753791
 H         -3.8588575464       -2.0732024924        1.5864691234
 H         -2.3988116066       -2.8589121626        0.9336678578
 H         -3.8378680707       -2.5922232683       -0.0825054768
 H          0.9387053015        2.3868940016        0.7231184092
 H          3.4198976538        2.2701573593        0.7305966561
  32
        -58.23394142
 C          4.9416005199        0.3309542326       -0.1220738544
 O          5.5717312155        1.2938525522       -0.4892169777
 O          5.5549474201       -0.7888879863        0.2853185742
 H          6.5160518388       -0.6679936099        0.2251926337
 C          3.4630699265        0.2932009533       -0.0808985662
 C          2.8094242099        1.4718832701       -0.4492913814
 C          1.4328109690        1.5336050184       -0.4328185019
 C          0.7329732402        0.3902333989       -0.0394764686
 N          1.3525211925       -0.7329167775        0.2952662374
 C          2.6718971266       -0.8122827119        0.2831144558
 C          3.2193431801       -2.1420520697        0.6785993170
 H          2.3874229097       -2.8115872306        0.8763614932
 H          3.8377344770       -2.0519276783        1.5688829932
 H          3.8414151015       -2.5517203675       -0.1136844947
 C         -0.7398883915        0.3721996554        0.0138132468
 N         -1.3325501736       -0.7670446472       -0.3171416007
 C         -2.6496792213       -0.8702159354       -0.3010956569
 C         -3.4665501297        0.2189902516        0.0646558899
 C         -2.8421203763        1.4139859128        0.4254137630
 C         -1.4655503998        1.5006804389        0.4023413284
 H         -0.9642179391        2.4086149513        0.6981836305
 H         -3.4435236738        2.2602657718        0.7203018449
 C         -4.9396367956        0.1228535304        0.0788475675
 O         -5.5921409848       -0.8422753156       -0.2339021122
 O         -5.5321072424        1.2602700027        0.4898610942
 H         -6.4944633459        1.1418650679        0.4800849582
 C         -3.1930657346       -2.1998623102       -0.6931532476
 H         -3.8044016730       -2.6113438175        0.1071379209
 H         -2.3651349234       -2.8676652074       -0.9115826333
 H         -3.8365067534       -2.1045835984       -1.5654187081
 H          0.9135578695        2.4289159556       -0.7355907699
 H          3.4094295089        2.3207476328       -0.7437001236
  32
        -58.23296906
 C         -4.9434868627       -0.2967551967        0.1316503189
 O         -5.5843013987       -1.2490927462        0.5075369286
 O         -5.5442603998        0.8282982534       -0.2804573908
 H         -6.5065674692        0.7195931512       -0.2164390298
 C         -3.4647986513       -0.2781249144        0.0838596845
 C         -2.8247777609       -1.4674018579        0.4420520549
 C         -1.4491317227       -1.5466816956        0.4191811018
 C         -0.7363308675       -0.4097168328        0.0306737903
 N         -1.3428378304        0.7238002178       -0.2935284649
 C         -2.6610468112        0.8195503869       -0.2759733003
 C         -3.1933312178        2.1589189340       -0.6600004955
 H         -3.8110248923        2.5691300705        0.1354200875
 H         -3.8123300589        2.0830086596       -1.5511748151
 H         -2.3538636737        2.8205512389       -0.8524409494
 C          0.7362490959       -0.4099511973       -0.0287617784
 N          1.3431939397        0.7224382957        0.2985293455
 C          2.6614206706        0.8180848940        0.2801080450
 C          3.4647036168       -0.2783697304       -0.0845040726
 C          2.8242142500       -1.4670243583       -0.4440161730
 C          1.4486005558       -1.5462951036       -0.4199017659
 H          0.9392393117       -2.4496376181       -0.7153597949
 H          3.4334483776       -2.3094981171       -0.7377903623
 C          4.9433382797       -0.2970956641       -0.1342951101
 O          5.5840481932       -1.2560763588       -0.4931101651
 O          5.5442792074        0.8363471460        0.2538742178
 H          6.5064873763        0.7272338365        0.1890091150
 C          3.1941002686        2.1555582442        0.6700839224
 H          2.3549133329        2.8133549183        0.8764016898
 H          3.8019529154        2.5738717263       -0.1287139495
 H          3.8230135925        2.0743590540        1.5537951963
 H         -0.9401091937       -2.4507278824        0.7130561236
 H         -3.4343610108       -2.3105814343        0.7330603376
  32
        -58.23138715
 C          4.9510991491       -0.3171765088        0.0773771346
 O          5.6454746438        0.4880764105        0.6315235592
 O          5.5016924282       -1.3684239987       -0.5628731975
 H          4.8436777933       -1.9275820693       -0.9969820369
 C          3.4622128442       -0.2551195775        0.0373740382
 C          2.7005832885       -1.4213477747        0.1069673387
 C          1.3224564458       -1.3398985438        0.0962231432
 C          0.7378471040       -0.0758137181        0.0161102134
 N          1.4633711836        1.0373667499       -0.0481701386
 C          2.7817022889        0.9764817385       -0.0330261484
 C          3.5020142399        2.2795687841       -0.1105168835
 H          2.7806079347        3.0811519678       -0.2375351943
 H          4.2082813930        2.2833879927       -0.9381241308
 H          4.0734710833        2.4398000229        0.8012991279
 C         -0.7220478575        0.0767803177        0.0057590746
 N         -1.4423217100       -1.0409871053        0.0420003928
 C         -2.7627290904       -0.9850361645        0.0349537207
 C         -3.4448104161        0.2480173629       -0.0102386811
 C         -2.6858526625        1.4197142789       -0.0477867595
 C         -1.3092696356        1.3417774075       -0.0407292690
 H         -0.6816518699        2.2165390468       -0.0688434114
 H         -3.1862400534        2.3751906062       -0.0822829424
 C         -4.9196979712        0.3235303304       -0.0184691668
 O         -5.6792468952       -0.6134672158        0.0080713835
 O         -5.3752616682        1.5889493113       -0.0608174813
 H         -6.3449195996        1.5818728414       -0.0638983715
 C         -3.4626641229       -2.2993838454        0.0781552002
 H         -2.7254392373       -3.0964324709        0.1095110317
 H         -4.1010097944       -2.4179574641       -0.7947949621
 H         -4.1085523624       -2.3564714300        0.9517374666
 H          0.6931079340       -2.2116234060        0.1555130953
 H          3.1795388463       -2.3879109984        0.2069998189
  32
        -58.23032186
 C          4.9404617321       -0.4889883656       -0.0075021214
 O          5.5066514154       -1.3491052209        0.6064491937
 O          5.6261567681        0.3618291225       -0.7951380944
 H          5.0503157666        0.9808005549       -1.2624356142
 C          3.4584767590       -0.3204886362        0.0218649049
 C          2.6854259150       -1.4828554999        0.0441911640
 C          1.3101395734       -1.3892085127        0.0559618922
 C          0.7374689019       -0.1154801065        0.0537168170
 N          1.4746914099        0.9899933747        0.0860179271
 C          2.7936788358        0.9152591404        0.0791453643
 C          3.5022698665        2.2352090138        0.1746479961
 H          2.8647408606        2.9282716526        0.7179326373
 H          3.6645803904        2.6598567717       -0.8174480908
 H          4.4558270237        2.1480569649        0.6894707014
 C         -0.7205022602        0.0556320946        0.0354230074
 N         -1.4523447509       -1.0528584013       -0.0288434125
 C         -2.7718342086       -0.9828567814       -0.0483248236
 C         -3.4413910402        0.2572387223       -0.0038476538
 C         -2.6706074607        1.4197464367        0.0629633769
 C         -1.2951090774        1.3265087712        0.0836121260
 H         -0.6601330114        2.1949440345        0.1356400853
 H         -3.1611034864        2.3803661703        0.0978875140
 C         -4.9150997253        0.3493760009       -0.0265310869
 O         -5.6841108834       -0.5776613250       -0.0935393545
 O         -5.3578431166        1.6188338990        0.0364832782
 H         -6.3273719835        1.6221058411        0.0190193209
 C         -3.4843278586       -2.2889045674       -0.1198730287
 H         -4.1442844430       -2.4083428440        0.7367443871
 H         -2.7548335353       -3.0933024126       -0.1410938799
 H         -4.1100891919       -2.3312976237       -1.0088412232
 H          0.6710792545       -2.2556742290        0.0661522754
 H          3.1875548288       -2.4390242214        0.0446592528
  32
        -58.23002276
 C         -4.9489780408       -0.3523792064        0.0782088337
 O         -5.6523780271        0.4387297389        0.6411203333
 O         -5.4873722966       -1.4051663923       -0.5701564097
 H         -4.8230766246       -1.9512894088       -1.0111890126
 C         -3.4610609027       -0.2715713421        0.0363666435
 C         -2.6851146889       -1.4287310392        0.0974607970
 C         -1.3080722590       -1.3302783925        0.0858534888
 C         -0.7390105727       -0.0586607572        0.0129279972
 N         -1.4783961757        1.0456481488       -0.0438168724
 C         -2.7957920524        0.9687644011       -0.0271276611
 C         -3.5320455351        2.2633376242       -0.0947942772
 H         -2.8207608301        3.0743302458       -0.2189796131
 H         -4.1025676166        2.4111862804        0.8197279526
 H         -4.2408564481        2.2635494454       -0.9202248859
 C          0.7187419589        0.1132017438        0.0013387328
 N          1.4537213490       -0.9943762149        0.0419329820
 C          2.7743537750       -0.9285962530        0.0358454025
 C          3.4406300108        0.3100866331       -0.0139487849
 C          2.6649144638        1.4724249240       -0.0578157295
 C          1.2902246184        1.3854390685       -0.0508153737
 H          0.6540083450        2.2536482708       -0.0826550866
 H          3.1721796076        2.4253875141       -0.0962691085
 C          4.9072947817        0.5081872500       -0.0261654121
 O          5.4293883554        1.5951404550       -0.0884928805
 O          5.6393715203       -0.6132391211        0.0376580409
 H          6.5816777068       -0.3808985909        0.0253408096
 C          3.4667206494       -2.2497148941        0.0842700789
 H          4.1050610888       -2.3800186538       -0.7864724062
 H          2.7185377130       -3.0368833686        0.1094481242
 H          4.0976984742       -2.3180528058        0.9673893629
 H         -0.6684655105       -2.1949135385        0.1390078628
 H         -3.1521950867       -2.4016924132        0.1916822378
  32
        -58.22912510
 C         -4.9367206864        0.5243880612       -0.0091990930
 O         -5.4890550872        1.4022216518        0.5923888637
 O         -5.6365569005       -0.3292670650       -0.7808003942
 H         -5.0711248318       -0.9645578851       -1.2388596657
 C         -3.4570454101        0.3364478354        0.0192103145
 C         -2.6696058854        1.4893085213        0.0291617528
 C         -1.2955649599        1.3791095527        0.0396944006
 C         -0.7383872645        0.0985358333        0.0481108693
 N         -1.4892152203       -0.9971889620        0.0918268264
 C         -2.8071744287       -0.9067727093        0.0870513859
 C         -3.5305610508       -2.2174561667        0.1971843424
 H         -4.4807810183       -2.1150186373        0.7153977182
 H         -2.8983966403       -2.9127685403        0.7438755412
 H         -3.7016999146       -2.6492032006       -0.7903600649
 C          0.7171608943       -0.0920014648        0.0293439380
 N          1.4637673656        1.0063738120       -0.0313122259
 C          2.7834021298        0.9264805517       -0.0478827871
 C          3.4368863656       -0.3193560571       -0.0035436465
 C          2.6492254654       -1.4728047600        0.0552620226
 C          1.2756961569       -1.3704584731        0.0729117096
 H          0.6319720305       -2.2325263051        0.1197459762
 H          3.1464755070       -2.4313149431        0.0870803437
 C          4.9012327178       -0.5339295186       -0.0155700625
 O          5.4111558998       -1.6285416783       -0.0127270688
 O          5.6450827753        0.5811047776       -0.0281288913
 H          6.5849858726        0.3389969979       -0.0319284177
 C          3.4887276516        2.2394562293       -0.1181363067
 H          4.1251099864        2.2865762391       -0.9987017535
 H          4.1236219924        2.3785247852        0.7538632993
 H          2.7481877217        3.0330773915       -0.1595309676
 H         -0.6464554442        2.2381356433        0.0411054147
 H         -3.1601796286        2.4514432969        0.0213980735
  32
        -58.22368353
 C          4.9620201337       -0.1784493244        0.0070068126
 O          5.5891362871        0.4130998193       -0.8256573439
 O          5.5935587734       -0.8423620142        0.9969343085
 H          4.9802991760       -1.2465242324        1.6249719700
 C          3.4733610758       -0.2546594696        0.0393053328
 C          2.8335761551       -1.4399540985        0.3951060457
 C          1.4530668608       -1.5046216205        0.3808902100
 C          0.7437772138       -0.3619999427        0.0086109086
 N          1.3542677823        0.7694165501       -0.3182300426
 C          2.6711429190        0.8466223374       -0.3187034858
 C          3.2534024167        2.1633950860       -0.7031148476
 H          2.4471247043        2.8698785237       -0.8743100718
 H          3.8499642814        2.0551049069       -1.6065051850
 H          3.9132771301        2.5366599350        0.0774860031
 C         -0.7296518056       -0.3562275032       -0.0352351725
 N         -1.3287224865        0.7650442996        0.3411701934
 C         -2.6469275482        0.8582198263        0.3354173055
 C         -3.4564377220       -0.2242392025       -0.0651132981
 C         -2.8248125256       -1.4001492394       -0.4720585160
 C         -1.4472414372       -1.4762628869       -0.4598125059
 H         -0.9401717297       -2.3684292728       -0.7919592595
 H         -3.4209813508       -2.2403263727       -0.7936806092
 C         -4.9308986591       -0.1399222340       -0.0680423285
 O         -5.5888143997        0.8045950455        0.2917996723
 O         -5.5154603929       -1.2621959501       -0.5278941608
 H         -6.4787824891       -1.1525010259       -0.5104497979
 C         -3.1986828384        2.1683629509        0.7771593663
 H         -3.8349870039        2.0374473459        1.6500659202
 H         -3.8195576143        2.6015481581       -0.0040980735
 H         -2.3752285013        2.8360171776        1.0123278997
 H          0.9405141279       -2.4100672363        0.6643623638
 H          3.4080842281       -2.3225439261        0.6494394514
