57
 energy: -93.770529243142 gnorm: 0.000459212118 xtb: 6.3.0 (7ac954c)
C           2.51885722004187    12.17662715148715    -6.81728233534099
C           3.79263486003264    10.88117740396208    -9.24277139249300
C           0.60326424055843    11.17348956997754   -10.63861836568582
C          -0.61431699552403    11.99423122302089   -10.86929996371290
H           1.92059464614371    12.30613232057303    -7.71910060395745
H           1.87745792407765    12.27484310796856    -5.94542501212327
H           3.26661205459685    12.97058657849107    -6.78856083213943
H           4.61587018391094    10.39183338362766    -9.77147954060345
H           3.96484691383750    11.95917930861104    -9.17132906040893
H          -0.35465949548836    13.04814150712946   -10.81659489869315
H          -1.04333335689823    11.76995412224163   -11.84341335093108
H          -1.36452559609971    11.79193255098449   -10.10487732170844
N           2.56687839869069    10.68807847591155    -9.96559510486800
N           1.63152618497963    11.64814915475328    -9.96514205786791
C           3.94066632139772     8.78681620424983    -6.45023816086347
C           3.28784983923652     9.88046129230368    -5.82152486125780
C           3.16539017082492    10.84117375894168    -6.81477413766446
C           4.35749330902628     7.49223509972438    -5.85139545114595
C           0.88235352756909     9.85951556303583   -11.09893474045392
C           2.16102866866256     9.58389717776312   -10.63661495305702
C           2.99636533552240     8.36124918714389   -10.72506285304795
C           2.88030597118755     9.98765381598172    -4.42828050578847
C           3.13358532445215    11.15614590791261    -3.70885604318461
C           2.75967942242027    11.26820478728400    -2.38502938974964
C           2.12465199080504    10.20673973378081    -1.74179966521339
C           1.88715247537206     9.03136838277258    -2.45409258369118
C           2.25360471258820     8.92403648799571    -3.77808607132099
C           1.70276927284942    10.24380933564571    -0.31546007210523
C           0.03531278880298     9.00504870964538   -11.91861420825334
C          -1.32769821680528     8.88027471627620   -11.65220379418896
C          -2.12945766543716     8.07036905168363   -12.43132453035391
C          -1.58749158149508     7.37046615819022   -13.50811000720673
C          -0.22893807362364     7.51136161875155   -13.79001158852209
C           0.57249813546394     8.30957355639479   -13.00337438303005
C          -2.38922107569086     6.49277764521192   -14.40314575780391
H           3.54576159586958     6.76683814230826    -5.90333067380372
H           3.79509286635066     8.48905410794308   -11.45703426904783
H           3.45229328228090     8.14287484430525    -9.75943127665182
H           2.38206469280846     7.51826667058242   -11.03005406318194
H           3.65171557094692    11.97294234151071    -4.18844161870149
H           3.00798882134738    12.17957038313182    -1.85478099784814
H           1.40420407481725     8.21307384711045    -1.94206544459622
H           2.04249131100045     8.01762558082362    -4.32348696435667
H          -1.75651460445430     9.41105998977879   -10.81626116619312
H          -3.18755544956484     8.02056668109847   -12.20518962845120
H           0.17485898329163     6.98047661501430   -14.63863050420388
H           1.61954671232293     8.42106864730779   -13.24017812267634
N           3.72715180562563    10.30989164562598    -7.92675402916235
N           4.19595362517964     9.07302829107968    -7.71059827314246
O           1.48466883957398     9.25291647627610     0.32755987399730
O          -3.54734200419521     6.01614680430165   -13.90413075405279
O          -2.03787984399734     6.19468128189064   -15.51245368484112
H           4.63267133251104     7.62775151610238    -4.80782304633686
H           5.20264322216632     7.09316860059164    -6.40584837138350
O           1.55720504556421    11.46263122242123     0.24238003938577
H          -3.69142598889612     6.28635778584380   -12.98784761415505
H           1.71785497829758    12.17682968251825    -0.38796618246156
