26
-3634.60661494 
Co        -0.20975       -0.20923        1.37842
Co         0.20575        0.21630       -1.37951
O          1.34049       -1.49658        1.10574
O         -1.54943        1.29301        1.11178
O         -1.57452       -1.62473        0.96633
O          1.29544        1.34798        1.24227
C          1.83568       -1.78628       -0.00403
C         -1.82194       -1.86779       -0.23973
O         -1.33210        1.51421       -1.10349
O          1.53306       -1.29888       -1.11387
O          1.58292        1.61953       -0.96653
O         -1.31187       -1.33077       -1.24268
C         -1.83951        1.79215        0.00383
C          1.81801        1.87354        0.23970
H         -2.58007       -2.64873       -0.42470
H         -2.62930        2.56168        0.00327
H          2.57663        2.65381        0.42546
H          2.62563       -2.55569       -0.00411
N         -0.09895       -0.09320       -3.42807
H          0.71604       -0.43235       -3.92461
H         -0.80442       -0.82372       -3.42564
H         -0.46769        0.71076       -3.92157
N          0.10511        0.08311        3.42816
H         -0.70881        0.39528        3.94365
H          0.49795       -0.72269        3.89965
H          0.79606        0.82742        3.43033
