26
-3634.55995252
Co        -0.10719       -0.12100        1.28524
Co         0.15286        0.07176       -1.28949
O          1.28511       -1.50024        1.13297
O         -1.47721        1.27580        1.11196
O         -1.47243       -1.48773        1.04958
O          1.31382        1.28206        1.16831
C          1.80678       -1.78066        0.03010
C         -1.73340       -1.81980       -0.12882
O         -1.27142        1.42831       -1.12305
O          1.54706       -1.28941       -1.09197
O          1.49339        1.46571       -1.06463
O         -1.22770       -1.36968       -1.18159
C         -1.76539        1.73779       -0.01508
C          1.78499        1.76711        0.11463
H         -2.49885       -2.60184       -0.25209
H         -2.54914        2.51134       -0.03435
H          2.54780        2.55160        0.23859
H          2.59065       -2.55363        0.04848
N         -0.11448       -0.00733       -3.39291
H          0.74419       -0.08310       -3.92349
H         -0.68922       -0.81914       -3.58670
H         -0.61441        0.81778       -3.70193
N          0.03450        0.08889        3.39180
H         -0.83223        0.42303        3.79499
H          0.29766       -0.77080        3.85743
H          0.75466        0.78131        3.56207
