  127
       -212.85613466
 C         -2.6561846126       -1.1235921379       -5.2470142771
 C         -0.4100386476       -0.6500798335       -5.8484406570
 C         -1.0045316978       -2.8198854695       -5.0900981422
 H         -2.9965845716       -0.2884035342       -5.8640423640
 H          0.4669302151       -1.0655537935       -6.3509022935
 H         -1.7855118533       -3.5822364447       -5.1458242535
 H         -0.7666478017        0.1977531528       -6.4382014205
 H         -3.4244611520       -1.9000388435       -5.2774218348
 H         -0.1101570605       -3.2169496991       -5.5763441674
 N         -1.4520680844       -1.6671699178       -5.8587872802
 C         -1.5486087636        2.1577102638       -0.5007583810
 C         -2.4740283611       -1.0542238782        0.6043147849
 C          0.8621095599       -2.0965143143        0.3559368051
 C          1.7819885692        1.1152705714       -0.7576598277
 C         -2.2767741943        3.4395385659       -0.7529008017
 C         -3.7620900041       -1.6997238245        1.0061531397
 C          1.5788148764       -3.3827012899        0.6131184133
 C          3.0548115347        1.7847996479       -1.1617652485
 C          3.7740495895       -7.8993980666        0.3386544196
 C          7.4175168441        4.2768371585       -1.3871369337
 C         -4.4847903670        7.9516334037       -0.4822624075
 C         -8.1710254226       -4.1127160530        1.2225814877
 C         -2.4344997289        4.3571163686        0.2562528120
 C         -4.5508081323       -2.3162942433        0.0664501240
 C          1.7198283098       -4.3062079695       -0.3928340958
 C          3.8265065548        2.4275349608       -0.2252654168
 C          3.6286204593       -6.9842172542        1.3439117857
 C          6.6476057228        3.6423740206       -2.3219302892
 C         -4.3300603503        7.0393413240       -1.4886490000
 C         -7.3875540706       -3.4997384787        2.1603734598
 C         -3.1187661871        5.5663158652        0.0294754165
 C         -5.7667674174       -2.9234904514        0.4333256317
 C          2.4013360552       -5.5169640401       -0.1666771155
 C          5.0313887855        3.0546741186       -0.5947599720
 C          2.9420288751       -5.7730305542        1.1219732062
 C          5.4389293521        3.0158543133       -1.9552735277
 C         -3.6465039408        5.8269495920       -1.2637064364
 C         -6.1695077733       -2.8906644921        1.7954849950
 C         -3.2965144264        6.5282954465        1.0467818936
 C         -6.5985938414       -3.5638261983       -0.5100566848
 C          2.5662621484       -6.4833829287       -1.1819510857
 C          5.8474962712        3.7195377815        0.3452634925
 C          2.7742856669       -4.8068676547        2.1384698623
 C          4.6201917053        2.3528861787       -2.8961125343
 C         -3.4689571594        4.8640346748       -2.2814480574
 C         -5.3371904372       -2.2495478780        2.7392607326
 C         -3.9640115874        7.6939358729        0.7958983745
 C         -7.7734056205       -4.1449300298       -0.1235938080
 C          3.2381104035       -7.6472826383       -0.9343568261
 C          7.0141268115        4.3159860887       -0.0428805376
 C          2.1101563098       -3.6407540144        1.8935093038
 C          3.4574431745        1.7516352853       -2.5125564881
 C         -2.8020157843        3.6998756127       -2.0351553397
 C         -4.1637670365       -1.6683043416        2.3572037797
 C         -1.0742310840        1.5921163487        3.8588402219
 C         -2.3584517903       -0.6752261184       -3.7989385411
 C         -0.7187883864       -2.4052201802       -3.6290353055
 C          1.2165920491        2.0899330293        3.3965466917
 C         -0.0871830591       -0.2353221777       -4.3951147111
 C          0.5996089550       -0.0857733977        4.1585783367
 H         -1.3851574877        2.4095934473        3.2078814360
 H         -2.9868493358       -1.1973853798       -3.0768800129
 H          0.3177883229       -2.6011119010       -3.3521391007
 H          2.1323952235        1.6750933249        2.9734727542
 H         -0.2468864373        0.8317849009       -4.2332544595
 H         -0.1579318938       -0.8650372287        4.0635252805
 H         -2.0279375387        4.1463977607        1.2341612441
 H         -4.2326940014       -2.3338362111       -0.9652974189
 H          1.3022751809       -4.0981661379       -1.3666825063
 H          3.5028133325        2.4511226350        0.8047413322
 H          4.0393447822       -7.1753874727        2.3250954327
 H          6.9549285084        3.6106864641       -3.3576901365
 H         -4.7298956320        7.2342047370       -2.4736351728
 H         -7.6906213552       -3.4727704005        3.1974207960
 H         -2.8937476507        6.3239632737        2.0283785181
 H         -6.2872776970       -3.5848746349       -1.5445259503
 H          2.1510054283       -6.2827422319       -2.1590228628
 H          5.5311858611        3.7451825838        1.3779102267
 H          3.1837479397       -5.0100237520        3.1179434435
 H          4.9340632074        2.3309474438       -3.9302083767
 H         -3.8730676951        5.0684467246       -3.2628029219
 H         -5.6493508330       -2.2282650928        3.7737908747
 H         -4.0965415895        8.4266297133        1.5784095174
 H         -8.4058253645       -4.6337113540       -0.8501376551
 H          3.3627448165       -8.3827012974       -1.7156218906
 H          7.6356890780        4.8224123115        0.6810417508
 H          1.9714485914       -2.8967182013        2.6632916708
 H          2.8225695676        1.2436691883       -3.2218274598
 H         -2.6599276373        2.9574868816       -2.8050130954
 H         -3.5201133426       -1.1758613916        3.0694225594
 H         -1.3647124246       -2.9313279146       -2.9243748916
 H          0.8959889079        2.9199561413        2.7653183070
 H         -1.8265781116        0.8056164811        3.7954025740
 H         -2.5138229500        0.3961006167       -3.6687501930
 H          0.9451727645       -0.4687195107       -4.1317341980
 H          1.5351067109       -0.4690269721        3.7484751363
 N          0.1826037182        1.0491085827        3.3245588208
 N         -0.9575799686       -0.9653477764       -3.4639141865
 NI        -0.1517377869        0.3656379437        1.0813073933
 NI        -0.5339652529       -0.3079578309       -1.2286384555
 O         -1.0885870799        1.9773329965        0.6551245896
 O         -2.1539721512       -1.1198031460       -0.6090964006
 O          0.4188824663       -1.9081005185       -0.8024395983
 O          1.4748979068        1.1593295331        0.4640555805
 O         -1.4503046870        1.3552444691       -1.4625984001
 O         -1.8069552492       -0.4930171179        1.5095625860
 O          0.7611378977       -1.2944266163        1.3210211992
 O          1.1133147899        0.5538248972       -1.6585089454
 C         -0.8652292575        2.0665911849        5.3141325799
 C          0.7694928953        0.3748217506        5.6240108336
 C          1.4184575865        2.5284545883        4.8645778896
 H         -1.5330141117        1.5470361792        6.0056577205
 H          1.7851671643        0.1955541217        5.9851633341
 H          1.2258143245        3.5961531150        4.9946177916
 H          0.0774826921       -0.1450613864        6.2907440672
 H         -1.0430894264        3.1398052689        5.4164268693
 H          2.4356429334        2.3247736045        5.2075539825
 N          0.5036076489        1.8019819660        5.7335514958
 H          8.3430896174        4.7534296410       -1.6756455822
 H         -9.1028949894       -4.5773927276        1.5098732896
 H          4.3028660854       -8.8244916349        0.5158784151
 H         -5.0093315802        8.8785790511       -0.6624276073
 C          3.8822008038       -0.7196852866        1.3989023157
 H          2.9699720696       -0.1370389106        1.5431771004
 CL         3.9477510670       -1.2160651606       -0.2999943024
 H          3.9025558480       -1.6190217920        2.0124461734
 CL         5.2746045035        0.2759023808        1.8297878652
