32
 energy: -58.220243116039 gnorm: 0.000554855351 xtb: 6.3.0 (7ac954c)
C           9.89420745720206     6.92771305069093    17.74214443881950
C          16.98958266293710    13.77088934681966    18.71771052125295
C          12.92896996136773     9.83693413471155    18.11098194909351
C          14.01317017755075    10.81054427482486    18.28576462286262
C          11.88094004320609    10.08849486911238    17.22614794131211
C          15.05007711272001    10.57120839047841    19.18706848149054
C          10.88304296022253     9.14074517884382    17.11258414589814
C          16.03143708489008    11.53335468385309    19.32085571478843
C          10.95049719613148     7.97316986487662    17.87149201311469
C          15.96311003135287    12.70082078495265    18.56135145229630
C          12.05662927043467     7.80077110584018    18.72643993394123
C          14.87546269887661    12.85383017768978    17.67880824668596
C          12.21945276739467     6.58782203580173    19.57856519813883
C          14.71031954450138    14.06170668725108    16.82079215164750
H          11.87584438631368    11.00185577246650    16.65584722413971
H          15.05672445236039     9.65832526847313    19.75816202875329
H          10.07343002981542     9.29431146202428    16.40955787394785
H          16.82587123931332    11.39038601639761    20.04338025364961
N          12.99770662715028     8.72025877259837    18.83124864122556
N          13.94740951000974    11.92288934014479    17.55898041308606
O          10.10692546250096     5.74806801248062    17.74857310671474
O          16.75246453710088    14.94472569541717    18.65726104451740
O           8.63833260461092     7.39647588617335    17.60312052502720
O          18.24542295163193    13.33817571669510    18.94701865320961
H          13.86043079103638    13.91941112380908    16.16006124590580
H          15.60776172520383    14.24707925087021    16.23455571478165
H          14.54741584797200    14.93753095178577    17.44549150894943
H          12.22843208916152     5.69467801862677    18.95831478717793
H          11.38604975521896     6.49380462594805    20.27203392447668
H          13.14817055593040     6.66260501334494    20.13569238726043
H          18.31708155706325    12.37420372560814    18.94012755999725
H           8.59273577220250     8.36117989292173    17.64109235170468
