50
Coordinates from ORCA-job model1.input E -992.956038383715
  C       9.963580     27.043046      3.708239
  C       9.961724     24.035017      3.706979
  C      10.048611     27.050517      2.320745
  C      10.048027     24.029596      2.319510
  C       4.354007     21.644370      2.528537
  C       4.352199     29.434332      2.535534
  C       5.270310     22.716509      3.031140
  C       5.269256     28.362176      3.036623
  C       6.415021     25.537783      4.995661
  C       6.462857     23.166327      2.398493
  C       6.462562     27.914756      2.403691
  C       5.132759     23.499174      4.171448
  C       5.131905     27.577185      4.175306
  C       7.039162     22.658340      1.116515
  C       7.038858     28.426010      1.123020
  C       4.093311     23.482184      5.241026
  C       4.092024     27.591209      5.244512
  H       9.334609     27.767686      4.234040
  H       9.331885     23.309891      4.231075
  H      10.747498     26.583126      4.314507
  H      10.745394     24.493442      4.314697
  H       5.709159     25.536780      5.832247
  H       7.443337     25.537357      5.384229
  H       7.561606     23.454831      0.569446
  H       7.561092     27.630903      0.573735
  H       6.240855     22.263500      0.472818
  H       6.240575     28.822741      0.480460
  H       7.749273     21.832894      1.290642
  H       7.749169     29.250814      1.299321
  H       3.496689     24.408784      5.256894
  H       3.496679     26.663766      5.258879
  H       4.541221     23.344580      6.239027
  H       4.539425     27.728014      6.242855
  H      10.902703     26.596394      1.813072
  H      10.902960     24.483848      1.813357
  H       9.502999     27.790601      1.733501
  H       9.502649     23.290562      1.730713
  N       7.018120     24.145988      3.120692
  N       7.018628     26.934409      3.124337
  N       6.209936     24.345050      4.199021
  N       6.209977     26.732377      4.201834
  Rh      8.612010     25.540038      2.925009
  H       4.917698     20.781780      2.141920
  H       3.716009     22.016242      1.708814
  H       3.686462     21.274823      3.319893
  H       4.915162     30.299705      2.154071
  H       3.681405     29.799191      3.326284
  H       3.717532     29.064325      1.712392
  H       3.395728     22.652020      5.073061
  H       3.393349     28.420638      5.077484
50
Coordinates from ORCA-job model1.input E -992.956037836399
  C       9.963688     27.043038      3.708126
  C       9.961948     24.035068      3.706957
  C      10.048600     27.050442      2.320613
  C      10.048114     24.029616      2.319468
  C       4.353944     21.644240      2.528824
  C       4.352151     29.434258      2.535416
  C       5.270291     22.716434      3.031365
  C       5.269238     28.362099      3.036588
  C       6.414910     25.537777      4.995766
  C       6.462651     23.166447      2.398452
  C       6.462631     27.914758      2.403713
  C       5.132862     23.499073      4.171686
  C       5.131896     27.577120      4.175277
  C       7.038809     22.658776      1.116283
  C       7.039265     28.426069      1.123218
  C       4.093333     23.482024      5.241182
  C       4.091783     27.591140      5.244257
  H       9.334805     27.767736      4.233957
  H       9.332252     23.309882      4.231149
  H      10.747644     26.583119      4.314343
  H      10.745637     24.493589      4.314575
  H       5.708862     25.536787      5.832203
  H       7.443108     25.537384      5.384656
  H       7.561053     23.455463      0.569315
  H       7.561613     27.630946      0.574059
  H       6.240505     22.263875      0.472620
  H       6.241214     28.822936      0.480456
  H       7.749127     21.833448      1.290130
  H       7.749634     29.250785      1.299731
  H       3.496693     24.408629      5.257066
  H       3.496483     26.663649      5.258568
  H       4.541276     23.344437      6.239183
  H       4.539063     27.727971      6.242663
  H      10.902601     26.596236      1.812864
  H      10.902920     24.483969      1.813195
  H       9.502920     27.790522      1.733420
  H       9.502717     23.290523      1.730791
  N       7.018083     24.145946      3.120751
  N       7.018556     26.934304      3.124306
  N       6.209982     24.345031      4.199086
  N       6.209968     26.732307      4.201796
  Rh      8.612091     25.539984      2.925169
  H       4.917698     20.781766      2.142050
  H       3.715822     22.016259      1.709262
  H       3.686584     21.274494      3.320241
  H       4.915186     30.299623      2.154048
  H       3.681274     29.799151      3.326077
  H       3.717639     29.064120      1.712212
  H       3.395759     22.651864      5.073136
  H       3.393082     28.420513      5.077038
