50
E = -992.953398371619
  C      10.361594     26.369570      3.428190
  C       9.955540     27.465478      2.627451
  C       5.341521     21.125222      3.391879
  C       4.098650     29.996169      2.519371
  C       5.741138     22.550375      3.615525
  C       4.870021     28.807679      3.002238
  C       5.688134     25.899253      5.001135
  C       6.890606     23.196929      3.087327
  C       6.184928     28.441787      2.613682
  C       5.096318     23.507674      4.391655
  C       4.480598     27.856921      3.940093
  C       7.907291     22.598747      2.177084
  C       7.042317     29.126611      1.606374
  C       3.833744     23.418956      5.182065
  C       3.202106     27.709058      4.692832
  H      10.549378     26.554838      4.494758
  H       4.797390     25.839324      5.633354
  H       6.559705     26.084924      5.651120
  H       8.420077     23.367264      1.587490
  H       7.300745     28.445181      0.782774
  H       7.429018     21.885532      1.489911
  H       6.518534     29.991457      1.179639
  H       8.667387     22.042349      2.751423
  H       7.980619     29.480677      2.058425
  H       3.160851     24.266250      4.977173
  H       2.763877     26.706739      4.559838
  H       4.024076     23.383525      6.268258
  H       3.328488     27.894164      5.773215
  H       9.921869     28.427638      3.151523
  N       6.950565     24.460529      3.532546
  N       6.578586     27.349398      3.284740
  N       5.857986     24.641307      4.320855
  N       5.536092     27.000418      4.085649
  Rh      8.298074     26.069006      3.172232
  H       6.111545     20.431889      3.767275
  H       5.196645     20.903833      2.321843
  H       4.405190     20.882073      3.912861
  H       4.630127     30.932844      2.754019
  H       3.109695     30.054257      2.994374
  H       3.941678     29.968640      1.429250
  H       3.291076     22.504128      4.911744
  H       2.467645     28.434194      4.321369
  C      10.230156     27.568685      1.146522
  C      10.175268     25.026416      3.003698
  H       9.436587     28.106286      0.611629
  H      10.360295     26.587430      0.669642
  H      11.162272     28.139487      0.990115
  H      10.333468     24.745396      1.959115
  H      10.374949     24.227345      3.722815
  H       8.188842     25.855964      1.693879
