51
Coordinates from ORCA-job model3_clpos1.input E -1453.157944190180
  C       9.972627     26.640357      3.624581
  C       9.635489     27.492977      2.554645
  C       5.432420     21.031224      3.477056
  C       4.236471     30.195732      2.636962
  C       5.684751     22.504812      3.536715
  C       4.933707     28.929081      3.026042
  C       5.591032     25.870576      4.852330
  C       6.657100     23.227907      2.802331
  C       6.205902     28.497331      2.572531
  C       5.067967     23.449159      4.355788
  C       4.506308     27.951952      3.919410
  C       7.620047     22.705255      1.790347
  C       7.058072     29.180547      1.560252
  C       4.009900     23.295190      5.394019
  C       3.227963     27.831886      4.679358
  H       9.989280     26.971120      4.665098
  H       4.703604     25.842303      5.490007
  H       6.526039     25.898985      5.468644
  H       8.030526     23.526554      1.185763
  H       7.586113     28.448279      0.938316
  H       7.130153     21.982394      1.118864
  H       6.439572     29.817756      0.911732
  H       8.459515     22.184545      2.281820
  H       7.811269     29.826976      2.039736
  H       3.203082     24.036899      5.275583
  H       2.767254     26.839860      4.541600
  H       4.433155     23.405732      6.407328
  H       3.362085     27.999453      5.761881
  H       9.370414     28.510184      2.861266
  N       6.632144     24.517142      3.160409
  N       6.543340     27.348127      3.177734
  N       5.647341     24.647585      4.077562
  N       5.504797     27.026155      3.994323
  Rh      8.113403     26.019019      3.058733
  H       6.134262     20.473148      4.120030
  H       5.558403     20.643675      2.453746
  H       4.414490     20.775686      3.809517
  H       4.773782     31.081254      3.017003
  H       3.215251     30.235652      3.043518
  H       4.163634     30.307095      1.542540
  H       3.553093     22.298735      5.326196
  H       2.509530     28.578772      4.316553
  C      10.168627     27.378563      1.146504
  C      10.305770     25.212782      3.353365
  H       9.432782     27.719528      0.402614
  H      10.446068     26.348283      0.881747
  H      11.068542     28.010218      1.018133
  H      11.084050     25.036283      2.593738
  H      10.461102     24.650170      4.280535
  H       9.393840     24.682682      2.855386
  Cl      8.417614     25.090328      6.010538