50
E = -992.960947220615
   C      10.135887     26.142472      3.462064
  C       9.990103     27.450935      2.758797
  C       5.319492     21.139547      3.404176
  C       3.936595     29.906332      2.441831
  C       5.751803     22.554299      3.633726
  C       4.710172     28.708721      2.898634
  C       5.731676     25.916446      4.987960
  C       6.891735     23.188274      3.070733
  C       5.926458     28.233323      2.343931
  C       5.147137     23.512250      4.439424
  C       4.426726     27.853030      3.962830
  C       7.846854     22.585922      2.097062
  C       6.696956     28.801201      1.199443
  C       3.898478     23.439021      5.252849
  C       3.294163     27.850483      4.933528
  H      10.372659     26.142646      4.530137
  H       4.894298     25.848444      5.689212
  H       6.646263     26.192775      5.534865
  H       8.288309     23.346751      1.443156
  H       7.209213     28.011668      0.631121
  H       7.327490     21.845273      1.472364
  H       6.034316     29.348991      0.515005
  H       8.662561     22.057988      2.618856
  H       7.457427     29.516798      1.557919
  H       3.235814     24.298221      5.063590
  H       2.763015     26.884825      4.944810
  H       4.108048     23.394949      6.335016
  H       3.637149     28.068315      5.959221
  H      10.085785     28.289394      3.463019
  N       6.988768     24.445060      3.532994
  N       6.356039     27.168411      3.035091
  N       5.928574     24.631843      4.369721
  N       5.440403     26.938696      4.007408
  Rh      8.128023     26.062469      2.988194
  H       6.056568     20.425468      3.806006
  H       5.202214     20.918144      2.330976
  H       4.359685     20.926356      3.894874
  H       4.447187     30.842217      2.724757
  H       2.930428     29.933933      2.882746
  H       3.816845     29.916500      1.347130
  H       3.336421     22.534593      4.987023
  H       2.564037     28.622882      4.661551
  C      10.769632     27.704999      1.467746
  C       9.980857     24.945398      2.751987
  H      10.386855     28.596362      0.947985
  H      10.703029     26.852404      0.777560
  H      11.830284     27.878003      1.705295
  H      10.160399     24.881648      1.674644
  H      10.078928     24.005881      3.299885
  H       8.861507     27.569257      2.403123