51
Coordinates from ORCA-job model4_clpos1.input E -1453.194340876705
  C      10.408537     26.321985      3.347902
  C       9.925124     27.401794      2.562961
  C       5.380977     21.057940      3.376846
  C       4.193294     30.097496      2.670871
  C       5.750583     22.491547      3.604416
  C       4.900810     28.841716      3.075847
  C       5.569918     25.838082      4.975669
  C       6.923987     23.153281      3.149870
  C       6.197157     28.425559      2.670853
  C       5.044586     23.449309      4.324643
  C       4.460589     27.860052      3.955458
  C       8.013132     22.579411      2.309560
  C       7.090997     29.108174      1.695407
  C       3.731842     23.357659      5.029874
  C       3.171615     27.735231      4.697047
  H      10.676208     26.517397      4.387715
  H       4.635316     25.766236      5.537075
  H       6.429315     26.029356      5.646453
  H       8.344476     23.306389      1.556915
  H       7.344488     28.430972      0.867350
  H       7.666285     21.668514      1.800746
  H       6.600327     29.998307      1.278344
  H       8.888312     22.318841      2.926130
  H       8.033680     29.415546      2.170657
  H       3.048378     24.168274      4.729370
  H       2.715587     26.740951      4.560103
  H       3.839262     23.395126      6.127551
  H       3.290172     27.910879      5.780421
  H       9.928677     28.367200      3.083618
  N       6.937014     24.415906      3.587390
  N       6.530550     27.286224      3.283918
  N       5.795345     24.588283      4.292112
  N       5.468591     26.945264      4.052894
  Rh      8.317116     26.044885      3.235439
  H       6.183308     20.379553      3.710742
  H       5.190723     20.838482      2.312318
  H       4.475965     20.783865      3.938331
  H       4.800917     30.986745      2.907824
  H       3.237470     30.207420      3.203612
  H       3.975924     30.128311      1.589878
  H       3.239635     22.409385      4.776803
  H       2.454250     28.475780      4.319879
  C      10.151914     27.495319      1.070365
  C      10.176139     24.979532      2.961348
  H       9.341184     28.022743      0.551138
  H      10.255156     26.504825      0.605128
  H      11.081831     28.058961      0.869309
  H      10.247594     24.672230      1.915123
  H      10.409880     24.198514      3.689961
  H       8.135515     25.802416      1.719285
  Cl      8.561227     26.442276      5.760044