50
E -992.962833903228
 C      10.049215     26.728573      3.603598
  C       9.685469     27.535305      2.511077
  C       5.206756     21.134564      3.235162
  C       4.147717     29.987701      2.555913
  C       5.621002     22.555077      3.460382
  C       4.917775     28.793269      3.026147
  C       5.751140     25.853704      4.976375
  C       6.715437     23.221383      2.849571
  C       6.192582     28.385541      2.553882
  C       5.054085     23.487701      4.327199
  C       4.572405     27.878928      4.014386
  C       7.668979     22.679314      1.838908
  C       6.978520     29.048110      1.476612
  C       3.877297     23.371295      5.235888
  C       3.349621     27.788034      4.863537
  H      10.121935     27.139670      4.614459
  H       4.892771     25.816970      5.653977
  H       6.677106     25.953664      5.563268
  H       8.145775     23.488330      1.267694
  H       7.514257     28.315863      0.861867
  H       7.150533     22.015230      1.131638
  H       6.310606     29.627255      0.824543
  H       8.458793     22.081952      2.326053
  H       7.714913     29.751419      1.898663
  H       3.219210     24.251732      5.170706
  H       2.851899     26.809288      4.765769
  H       4.182440     23.245072      6.288891
  H       3.574074     27.959501      5.929886
  H       9.404400     28.558889      2.777767
  N       6.813009     24.469249      3.328278
  N       6.606832     27.301201      3.228595
  N       5.803725     24.624463      4.219885
  N       5.615733     27.000737      4.115850
  Rh      8.198884     26.019245      3.059528
  H       5.870617     20.434286      3.768718
  H       5.245717     20.867210      2.167727
  H       4.183246     20.946896      3.590518
  H       4.638406     30.925988      2.863627
  H       3.127837     29.999456      2.964582
  H       4.062866     30.007623      1.457908
  H       3.277023     22.495078      4.958160
  H       2.625110     28.552043      4.555589
  C      10.153662     27.357723      1.088608
  C      10.395490     25.298769      3.373810
  H       9.373384     27.636679      0.365493
  H      10.464954     26.329065      0.859149
  H      11.016331     28.019414      0.891897
  H      11.154038     25.109233      2.598951
  H      10.632115     24.744380      4.289220
  H       9.487577     24.727750      2.892066