55
Coordinates from ORCA-job model4_bf4.input E -1418.627341268687
  C      10.239626     26.430324      3.470693
  C       9.788713     27.426455      2.582744
  C       5.506966     20.951333      3.440628
  C       4.361489     30.285239      2.912937
  C       5.790145     22.406604      3.620717
  C       4.943022     28.936880      3.190108
  C       5.389597     25.770845      4.845844
  C       6.971115     23.080138      3.238699
  C       6.161479     28.438360      2.685324
  C       4.981614     23.371972      4.193046
  C       4.445768     27.938847      4.004688
  C       8.159457     22.495227      2.560306
  C       7.069683     29.123795      1.732281
  C       3.616785     23.264867      4.778649
  C       3.184631     27.887558      4.792462
  H      10.382760     26.698654      4.510362
  H       4.418368     25.675828      5.317313
  H       6.140486     25.928940      5.614269
  H       8.563908     23.184600      1.823753
  H       7.525266     28.407137      1.055627
  H       7.890966     21.563222      2.063498
  H       6.515202     29.855222      1.144307
  H       8.950066     22.278032      3.281794
  H       7.865739     29.649761      2.262472
  H       2.959280     24.054903      4.411007
  H       2.636255     26.959029      4.617824
  H       3.631789     23.315604      5.871017
  H       3.374186     27.982204      5.864967
  H       9.676544     28.409322      3.026112
  N       6.893947     24.365927      3.574901
  N       6.409815     27.227706      3.179997
  N       5.672664     24.542210      4.141353
  N       5.344182     26.917581      3.967826
  Rh      8.194018     26.014073      3.204423
  H       6.292381     20.337984      3.887295
  H       5.441639     20.675595      2.384838
  H       4.568744     20.666103      3.915873
  H       5.026864     31.075944      3.266840
  H       3.404401     30.418455      3.416796
  H       4.199256     30.449403      1.844422
  H       3.171063     22.312739      4.497829
  H       2.535245     28.708244      4.494520
  C      10.116012     27.418545      1.110204
  C      10.125723     25.060889      3.143929
  H       9.325874     27.855921      0.502318
  H      10.305099     26.413049      0.737485
  H      11.018878     28.012687      0.932824
  H      10.307059     24.712583      2.136052
  H      10.341337     24.338869      3.920894
  H       8.133369     25.726751      1.720252
  B       8.077552     27.552908      6.294787
  F       9.150708     27.639459      7.150812
  F       6.854454     27.416856      6.969226
  F       8.034064     28.616003      5.397672
  F       8.243450     26.313893      5.505862
55
Coordinates from ORCA-job model4_bf4.input E -1418.627347900882
  C      10.239466     26.430375      3.470886
  C       9.788592     27.426497      2.582909
  C       5.506975     20.951289      3.440575
  C       4.361228     30.285153      2.912810
  C       5.790092     22.406572      3.620668
  C       4.942798     28.936820      3.190029
  C       5.389377     25.770797      4.845790
  C       6.971040     23.080159      3.238673
  C       6.161300     28.438342      2.685315
  C       4.981506     23.371906      4.192978
  C       4.445523     27.938767      4.004571
  C       8.159421     22.495322      2.560284
  C       7.069525     29.123804      1.732312
  C       3.616670     23.264739      4.778555
  C       3.184326     27.887429      4.792247
  H      10.382548     26.698711      4.510560
  H       4.418126     25.675756      5.317206
  H       6.140220     25.928904      5.614258
  H       8.563746     23.184668      1.823635
  H       7.525184     28.407156      1.055702
  H       7.891024     21.563231      2.063587
  H       6.515039     29.855189      1.144289
  H       8.950096     22.278313      3.281754
  H       7.865522     29.649823      2.262539
  H       2.959149     24.054772      4.410935
  H       2.636009     26.958872      4.617580
  H       3.631657     23.315433      5.870926
  H       3.373791     27.982101      5.864766
  H       9.676407     28.409371      3.026259
  N       6.893811     24.365942      3.574885
  N       6.409655     27.227702      3.180014
  N       5.672506     24.542174      4.141301
  N       5.343982     26.917537      3.967774
  Rh      8.193871     26.014108      3.204513
  H       6.292399     20.337971      3.887269
  H       5.441689     20.675545      2.384784
  H       4.568750     20.666027      3.915794
  H       5.026556     31.075889      3.266733
  H       3.404110     30.418341      3.416620
  H       4.199041     30.449295      1.844284
  H       3.170977     22.312610      4.497692
  H       2.534924     28.708078      4.494239
  C      10.115967     27.418569      1.110384
  C      10.125591     25.060939      3.144119
  H       9.325852     27.855915      0.502447
  H      10.305095     26.413071      0.737693
  H      11.018829     28.012728      0.933038
  H      10.306978     24.712629      2.136253
  H      10.341170     24.338927      3.921100
  H       8.133299     25.726807      1.720337
  B       8.079025     27.553114      6.294876
  F       9.151926     27.637808      7.151403
  F       6.855391     27.419108      6.968754
  F       8.037754     28.616326      5.397795
  F       8.243198     26.313853      5.505974
