57
 energy: -93.770530475866 gnorm: 0.000685897510 xtb: 6.3.0 (7ac954c)
C          -0.51581950483309     9.74618905320337    -5.84721166499736
C          -0.44792786743458    11.65586356311272    -8.20180479004545
C          -0.71984456143434     8.73031916627671   -10.09009168258081
C          -1.35838099492812     7.40357085198379   -10.29424319821249
H          -0.88281113325768     9.28456040876629    -6.76382056598499
H          -0.17865721119571     8.96960904463090    -5.16585291710554
H          -1.34452418024807    10.28104585270265    -5.38073192110354
H          -0.32693078837018    12.64194496637117    -8.65942151048493
H          -1.43370903758432    11.56224410939439    -7.73691571919595
H          -2.34839750747197     7.40621225449665    -9.84605112841901
H          -1.43658530403924     7.17971164765332   -11.35573786191250
H          -0.77273522219923     6.61840148439800    -9.81586516774722
N          -0.34840187103424    10.63485291041515    -9.20699336793276
N          -1.07496546009011     9.51420965653539    -9.09251997666234
C           2.49728486145141    11.82841739194900    -6.33171798318880
C           1.84135157651176    10.84563688493572    -5.54363531771051
C           0.60513438328064    10.67056011653342    -6.14818478147329
C           3.84209725712039    12.42731655866176    -6.12848868278009
C           0.27001997654171     9.36600933006047   -10.88543001390740
C           0.48382954487406    10.59339699407270   -10.27495982239922
C           1.43113182783694    11.69339754965268   -10.58044277331247
C           2.34281779183262    10.19345836147406    -4.34241286842910
C           1.52145512973612    10.04641267184597    -3.22422200454404
C           1.98809434813224     9.43561829252429    -2.07772089886415
C           3.29619161527099     8.95711710436800    -2.01844566158538
C           4.12379679336312     9.11880747526423    -3.12943709456770
C           3.65465660752384     9.72311455176230    -4.27534946249225
C           3.87927103055317     8.29747776928944    -0.81903849521125
C           0.89882162751565     8.85841037962286   -12.09660285871014
C           1.33265677978695     7.53542651548203   -12.17472564791979
C           1.93271287852503     7.05382167550256   -13.32082179974012
C           2.10610320391364     7.88478639895609   -14.42651785939881
C           1.65175225979086     9.20158288520157   -14.35887192543327
C           1.06379409246687     9.68415382637333   -13.20996608674837
C           2.73131482360754     7.43677933547767   -15.70036842147492
H           4.60667879975239    11.82719869418883    -6.62133327367418
H           0.90957006638191    12.53835629687426   -11.03256276904533
H           1.91537984635211    12.04140802705582    -9.66811244890522
H           2.18861592802411    11.34399675273417   -11.27697174570404
H           0.51581265158484    10.43856368325156    -3.24895977015116
H           1.32731596046800     9.37515957054783    -1.22148131417932
H           5.13726876351661     8.75250967242348    -3.06804075771486
H           4.29927609108163     9.82132044083132    -5.13483304580279
H           1.21263804307715     6.88557772391355   -11.32169764098325
H           2.23287131667482     6.01347629709308   -13.34759507346470
H           1.77330113553505     9.82925789558545   -15.22852561160100
H           0.70398343680075    10.70109846455014   -13.17572565797296
N           0.57773274837689    11.51642374939454    -7.20589435335877
N           1.71578401066459    12.21550727038991    -7.31903488384237
O           5.06274176388273     8.18541094737446    -0.64600918715529
O           3.52798080704465     6.35114883188887   -15.63494439927095
O           2.56253946803120     8.00326431298362   -16.74600096616688
H           4.07711313191183    12.48231293273962    -5.06817317066077
H           3.86380401509838    13.42336423966408    -6.56201622181696
O           3.01084500106200     7.80666395896656     0.08780405250954
H           3.62310494155694     6.01868223075486   -14.73288942470695
H           2.09146437272728     7.91703393816913    -0.18598164781439
